/*--------------------------------*- C++ -*----------------------------------*\
| =========                 |                                                 |
| \\      /  F ield         | OpenFOAM: The Open Source CFD Toolbox           |
|  \\    /   O peration     | Version:  2206                                  |
|   \\  /    A nd           | Website:  www.openfoam.com                      |
|    \\/     M anipulation  |                                                 |
\*---------------------------------------------------------------------------*/
FoamFile
{
    version     2.0;
    format      ascii;
    arch        "LSB;label=32;scalar=64";
    class       polyBoundaryMesh;
    location    "constant/polyMesh";
    object      boundary;
}
// * * * * * * * * * * * * * * * * * * * * * * * * * * * * * * * * * * * * * //

4
(
    cylinder
    {
        type            wall;
        inGroups        1(wall);
        nFaces          0;
        startFace       497836;
    }
    auto0
    {
        type            patch;
        nFaces          46496;
        startFace       497836;
    }
    auto1
    {
        type            patch;
        nFaces          1544;
        startFace       544332;
    }
    auto2
    {
        type            patch;
        nFaces          1544;
        startFace       545876;
    }
)

// ************************************************************************* //
