/*--------------------------------*- C++ -*----------------------------------*\
| =========                 |                                                 |
| \\      /  F ield         | OpenFOAM: The Open Source CFD Toolbox           |
|  \\    /   O peration     | Version:  2206                                  |
|   \\  /    A nd           | Website:  www.openfoam.com                      |
|    \\/     M anipulation  |                                                 |
\*---------------------------------------------------------------------------*/
FoamFile
{
    version     2.0;
    format      ascii;
    arch        "LSB;label=32;scalar=64";
    class       extendedFeatureEdgeMesh;
    location    "constant/extendedFeatureEdgeMesh";
    object      solid_stl.extendedFeatureEdgeMesh;
}
// * * * * * * * * * * * * * * * * * * * * * * * * * * * * * * * * * * * * * //

// points

72
(
(-0.00492404 0.000868241 0)
(-0.005 0 0)
(-0.00492404 0.000868241 0.4)
(-0.00469846 0.0017101 0.4)
(-0.00469846 0.0017101 0)
(-0.00433013 0.0025 0.4)
(-0.00433013 0.0025 0)
(-0.00383022 0.00321394 0.4)
(-0.00383022 0.00321394 0)
(-0.00321394 0.00383022 0.4)
(-0.00321394 0.00383022 0)
(-0.0025 0.00433013 0.4)
(-0.0025 0.00433013 0)
(-0.0017101 0.00469846 0.4)
(-0.0017101 0.00469846 0)
(-0.000868241 0.00492404 0.4)
(-0.000868241 0.00492404 0)
(-3.06162e-19 0.005 0.4)
(-3.06162e-19 0.005 0)
(0.000868241 0.00492404 0.4)
(0.000868241 0.00492404 0)
(0.0017101 0.00469846 0.4)
(0.0017101 0.00469846 0)
(0.0025 0.00433013 0.4)
(0.0025 0.00433013 0)
(0.00321394 0.00383022 0.4)
(0.00321394 0.00383022 0)
(0.00383022 0.00321394 0.4)
(0.00383022 0.00321394 0)
(0.00433013 0.0025 0.4)
(0.00433013 0.0025 0)
(0.00469846 0.0017101 0.4)
(0.00469846 0.0017101 0)
(0.00492404 0.000868241 0.4)
(0.00492404 0.000868241 0)
(0.005 1.83697e-18 0.4)
(0.005 6.12323e-19 0)
(0.00492404 -0.000868241 0.4)
(0.00492404 -0.000868241 0)
(0.00469846 -0.0017101 0.4)
(0.00469846 -0.0017101 0)
(0.00433013 -0.0025 0.4)
(0.00433013 -0.0025 0)
(0.00383022 -0.00321394 0.4)
(0.00383022 -0.00321394 0)
(0.00321394 -0.00383022 0.4)
(0.00321394 -0.00383022 0)
(0.0025 -0.00433013 0.4)
(0.0025 -0.00433013 0)
(0.0017101 -0.00469846 0.4)
(0.0017101 -0.00469846 0)
(0.000868241 -0.00492404 0.4)
(0.000868241 -0.00492404 0)
(9.18485e-19 -0.005 0.4)
(9.18485e-19 -0.005 0)
(-0.000868241 -0.00492404 0.4)
(-0.000868241 -0.00492404 0)
(-0.0017101 -0.00469846 0.4)
(-0.0017101 -0.00469846 0)
(-0.0025 -0.00433013 0.4)
(-0.0025 -0.00433013 0)
(-0.00321394 -0.00383022 0.4)
(-0.00321394 -0.00383022 0)
(-0.00383022 -0.00321394 0.4)
(-0.00383022 -0.00321394 0)
(-0.00433013 -0.0025 0.4)
(-0.00433013 -0.0025 0)
(-0.00469846 -0.0017101 0.4)
(-0.00469846 -0.0017101 0)
(-0.00492404 -0.000868241 0.4)
(-0.00492404 -0.000868241 0)
(-0.005 0 0.4)
)

// edges

72
(
(0 1)
(2 3)
(4 0)
(3 5)
(6 4)
(5 7)
(8 6)
(7 9)
(10 8)
(9 11)
(12 10)
(11 13)
(14 12)
(13 15)
(16 14)
(15 17)
(18 16)
(17 19)
(20 18)
(19 21)
(22 20)
(21 23)
(24 22)
(23 25)
(26 24)
(25 27)
(28 26)
(27 29)
(30 28)
(29 31)
(32 30)
(31 33)
(34 32)
(33 35)
(36 34)
(35 37)
(38 36)
(37 39)
(40 38)
(39 41)
(42 40)
(41 43)
(44 42)
(43 45)
(46 44)
(45 47)
(48 46)
(47 49)
(50 48)
(49 51)
(52 50)
(51 53)
(54 52)
(53 55)
(56 54)
(55 57)
(58 56)
(57 59)
(60 58)
(59 61)
(62 60)
(61 63)
(64 62)
(63 65)
(66 64)
(65 67)
(68 66)
(67 69)
(70 68)
(69 71)
(1 70)
(71 2)
)

// concaveStart mixedStart nonFeatureStart
0 0 0
// internalStart flatStart openStart multipleStart
72 72 72 72
// normals

144
(
(-0.996195 0.0871544 0)
(0 0 -1)
(-0.965925 0.258824 0)
(0 0 1)
(-0.965925 0.258824 0)
(0 0 -1)
(-0.906311 0.422612 0)
(0 0 1)
(-0.906311 0.422612 0)
(0 0 -1)
(-0.81915 0.573579 0)
(0 0 1)
(-0.81915 0.573579 0)
(0 0 -1)
(-0.707107 0.707107 0)
(0 0 1)
(-0.707107 0.707107 0)
(0 0 -1)
(-0.573579 0.81915 0)
(0 0 1)
(-0.573579 0.81915 0)
(0 0 -1)
(-0.422612 0.906311 0)
(0 0 1)
(-0.422612 0.906311 0)
(0 0 -1)
(-0.258824 0.965925 0)
(0 0 1)
(-0.258824 0.965925 0)
(0 0 -1)
(-0.0871544 0.996195 0)
(0 0 1)
(-0.0871544 0.996195 0)
(0 0 -1)
(0.0871544 0.996195 0)
(0 0 1)
(0.0871544 0.996195 0)
(0 0 -1)
(0.258824 0.965925 0)
(0 0 1)
(0.258824 0.965925 0)
(0 -0 -1)
(0.422612 0.906311 0)
(0 0 1)
(0.422612 0.906311 0)
(0 -0 -1)
(0.573579 0.81915 0)
(0 0 1)
(0.573579 0.81915 0)
(0 0 -1)
(0.707107 0.707107 0)
(0 0 1)
(0.707107 0.707107 0)
(0 -0 -1)
(0.81915 0.573579 0)
(0 0 1)
(0.81915 0.573579 0)
(0 -0 -1)
(0.906311 0.422612 0)
(0 0 1)
(0.906311 0.422612 0)
(0 0 -1)
(0.965925 0.258824 0)
(0 0 1)
(0.965925 0.258824 0)
(0 -0 -1)
(0.996195 0.0871544 0)
(0 0 1)
(0.996195 0.0871544 -2.65743e-19)
(0 -0 -1)
(0.996195 -0.0871544 2.66833e-19)
(0 -0 1)
(0.996195 -0.0871544 0)
(0 0 -1)
(0.965925 -0.258824 0)
(0 -0 1)
(0.965925 -0.258824 0)
(-0 0 -1)
(0.906311 -0.422612 0)
(0 0 1)
(0.906311 -0.422612 0)
(-0 0 -1)
(0.81915 -0.573579 0)
(0 -0 1)
(0.81915 -0.573579 0)
(0 0 -1)
(0.707107 -0.707107 0)
(0 -0 1)
(0.707107 -0.707107 0)
(-0 0 -1)
(0.573579 -0.81915 0)
(0 0 1)
(0.573579 -0.81915 0)
(-0 0 -1)
(0.422612 -0.906311 0)
(0 -0 1)
(0.422612 -0.906311 0)
(0 0 -1)
(0.258824 -0.965925 0)
(0 -0 1)
(0.258824 -0.965925 0)
(-0 0 -1)
(0.0871544 -0.996195 0)
(0 0 1)
(0.0871544 -0.996195 0)
(-0 0 -1)
(-0.0871544 -0.996195 -0)
(-0 0 1)
(-0.0871544 -0.996195 0)
(0 -0 -1)
(-0.258824 -0.965925 -0)
(-0 0 1)
(-0.258824 -0.965925 0)
(0 0 -1)
(-0.422612 -0.906311 -0)
(0 0 1)
(-0.422612 -0.906311 0)
(0 0 -1)
(-0.573579 -0.81915 -0)
(-0 0 1)
(-0.573579 -0.81915 0)
(0 0 -1)
(-0.707107 -0.707107 -0)
(-0 0 1)
(-0.707107 -0.707107 0)
(0 0 -1)
(-0.81915 -0.573579 -0)
(0 0 1)
(-0.81915 -0.573579 0)
(0 0 -1)
(-0.906311 -0.422612 -0)
(-0 0 1)
(-0.906311 -0.422612 0)
(0 0 -1)
(-0.965925 -0.258824 -0)
(-0 0 1)
(-0.965925 -0.258824 0)
(0 0 -1)
(-0.996195 -0.0871544 -0)
(0 0 1)
(-0.996195 -0.0871544 0)
(0 0 -1)
(-0.996195 0.0871544 0)
(0 0 1)
)

// normal volume types

144
(
0
0
0
0
0
0
0
0
0
0
0
0
0
0
0
0
0
0
0
0
0
0
0
0
0
0
0
0
0
0
0
0
0
0
0
0
0
0
0
0
0
0
0
0
0
0
0
0
0
0
0
0
0
0
0
0
0
0
0
0
0
0
0
0
0
0
0
0
0
0
0
0
0
0
0
0
0
0
0
0
0
0
0
0
0
0
0
0
0
0
0
0
0
0
0
0
0
0
0
0
0
0
0
0
0
0
0
0
0
0
0
0
0
0
0
0
0
0
0
0
0
0
0
0
0
0
0
0
0
0
0
0
0
0
0
0
0
0
0
0
0
0
0
0
)

// normalDirections

72
(
2(1 -1)
2(1 -1)
2(1 -1)
2(1 -1)
2(1 -1)
2(1 -1)
2(1 -1)
2(1 -1)
2(1 -1)
2(1 -1)
2(1 -1)
2(1 -1)
2(1 -1)
2(1 -1)
2(1 -1)
2(1 -1)
2(1 -1)
2(1 -1)
2(1 -1)
2(1 -1)
2(1 -1)
2(1 -1)
2(1 -1)
2(1 -1)
2(1 -1)
2(1 -1)
2(1 -1)
2(1 -1)
2(1 -1)
2(1 -1)
2(1 -1)
2(1 -1)
2(1 -1)
2(1 -1)
2(1 -1)
2(1 -1)
2(1 -1)
2(1 -1)
2(1 -1)
2(1 -1)
2(1 -1)
2(1 -1)
2(1 -1)
2(1 -1)
2(1 -1)
2(1 -1)
2(1 -1)
2(1 -1)
2(1 -1)
2(1 -1)
2(1 -1)
2(1 -1)
2(1 -1)
2(1 -1)
2(1 -1)
2(1 -1)
2(1 -1)
2(1 -1)
2(1 -1)
2(1 -1)
2(1 -1)
2(1 -1)
2(1 -1)
2(1 -1)
2(1 -1)
2(1 -1)
2(1 -1)
2(1 -1)
2(1 -1)
2(1 -1)
2(1 -1)
2(1 -1)
)

// edgeNormals

72
(
2(0 1)
2(2 3)
2(4 5)
2(6 7)
2(8 9)
2(10 11)
2(12 13)
2(14 15)
2(16 17)
2(18 19)
2(20 21)
2(22 23)
2(24 25)
2(26 27)
2(28 29)
2(30 31)
2(32 33)
2(34 35)
2(36 37)
2(38 39)
2(40 41)
2(42 43)
2(44 45)
2(46 47)
2(48 49)
2(50 51)
2(52 53)
2(54 55)
2(56 57)
2(58 59)
2(60 61)
2(62 63)
2(64 65)
2(66 67)
2(68 69)
2(70 71)
2(72 73)
2(74 75)
2(76 77)
2(78 79)
2(80 81)
2(82 83)
2(84 85)
2(86 87)
2(88 89)
2(90 91)
2(92 93)
2(94 95)
2(96 97)
2(98 99)
2(100 101)
2(102 103)
2(104 105)
2(106 107)
2(108 109)
2(110 111)
2(112 113)
2(114 115)
2(116 117)
2(118 119)
2(120 121)
2(122 123)
2(124 125)
2(126 127)
2(128 129)
2(130 131)
2(132 133)
2(134 135)
2(136 137)
2(138 139)
2(140 141)
2(142 143)
)

// featurePointNormals
0()
// featurePointEdges
0()
// regionEdges
0()


// ************************************************************************* //
