/*--------------------------------*- C++ -*----------------------------------*\
| =========                 |                                                 |
| \\      /  F ield         | OpenFOAM: The Open Source CFD Toolbox           |
|  \\    /   O peration     | Version:  2206                                  |
|   \\  /    A nd           | Website:  www.openfoam.com                      |
|    \\/     M anipulation  |                                                 |
\*---------------------------------------------------------------------------*/
FoamFile
{
    version     2.0;
    format      ascii;
    arch        "LSB;label=32;scalar=64";
    class       polyBoundaryMesh;
    location    "constant/polyMesh";
    object      boundary;
}
// * * * * * * * * * * * * * * * * * * * * * * * * * * * * * * * * * * * * * //

4
(
    topPatch
    {
        type            patch;
        nFaces          0;
        startFace       199822;
    }
    wall
    {
        type            wall;
        inGroups        1(wall);
        nFaces          7778;
        startFace       199822;
    }
    bottomPatch
    {
        type            patch;
        nFaces          1544;
        startFace       207600;
    }
    procBoundary5to4
    {
        type            processor;
        inGroups        1(processor);
        nFaces          524;
        startFace       209144;
        matchTolerance  0.0001;
        transform       unknown;
        myProcNo        5;
        neighbProcNo    4;
    }
)

// ************************************************************************* //
