/*--------------------------------*- C++ -*----------------------------------*\
| =========                 |                                                 |
| \\      /  F ield         | OpenFOAM: The Open Source CFD Toolbox           |
|  \\    /   O peration     | Version:  2206                                  |
|   \\  /    A nd           | Website:  www.openfoam.com                      |
|    \\/     M anipulation  |                                                 |
\*---------------------------------------------------------------------------*/
FoamFile
{
    version     2.0;
    format      ascii;
    arch        "LSB;label=32;scalar=64";
    class       featureEdgeMesh;
    location    "constant/triSurface";
    object      solid_stl.eMesh;
}
// * * * * * * * * * * * * * * * * * * * * * * * * * * * * * * * * * * * * * //


// points:

72
(
(-0.00492404 0.000868241 0)
(-0.005 0 0)
(-0.00492404 0.000868241 0.4)
(-0.00469846 0.0017101 0.4)
(-0.00469846 0.0017101 0)
(-0.00433013 0.0025 0.4)
(-0.00433013 0.0025 0)
(-0.00383022 0.00321394 0.4)
(-0.00383022 0.00321394 0)
(-0.00321394 0.00383022 0.4)
(-0.00321394 0.00383022 0)
(-0.0025 0.00433013 0.4)
(-0.0025 0.00433013 0)
(-0.0017101 0.00469846 0.4)
(-0.0017101 0.00469846 0)
(-0.000868241 0.00492404 0.4)
(-0.000868241 0.00492404 0)
(-3.06162e-19 0.005 0.4)
(-3.06162e-19 0.005 0)
(0.000868241 0.00492404 0.4)
(0.000868241 0.00492404 0)
(0.0017101 0.00469846 0.4)
(0.0017101 0.00469846 0)
(0.0025 0.00433013 0.4)
(0.0025 0.00433013 0)
(0.00321394 0.00383022 0.4)
(0.00321394 0.00383022 0)
(0.00383022 0.00321394 0.4)
(0.00383022 0.00321394 0)
(0.00433013 0.0025 0.4)
(0.00433013 0.0025 0)
(0.00469846 0.0017101 0.4)
(0.00469846 0.0017101 0)
(0.00492404 0.000868241 0.4)
(0.00492404 0.000868241 0)
(0.005 1.83697e-18 0.4)
(0.005 6.12323e-19 0)
(0.00492404 -0.000868241 0.4)
(0.00492404 -0.000868241 0)
(0.00469846 -0.0017101 0.4)
(0.00469846 -0.0017101 0)
(0.00433013 -0.0025 0.4)
(0.00433013 -0.0025 0)
(0.00383022 -0.00321394 0.4)
(0.00383022 -0.00321394 0)
(0.00321394 -0.00383022 0.4)
(0.00321394 -0.00383022 0)
(0.0025 -0.00433013 0.4)
(0.0025 -0.00433013 0)
(0.0017101 -0.00469846 0.4)
(0.0017101 -0.00469846 0)
(0.000868241 -0.00492404 0.4)
(0.000868241 -0.00492404 0)
(9.18485e-19 -0.005 0.4)
(9.18485e-19 -0.005 0)
(-0.000868241 -0.00492404 0.4)
(-0.000868241 -0.00492404 0)
(-0.0017101 -0.00469846 0.4)
(-0.0017101 -0.00469846 0)
(-0.0025 -0.00433013 0.4)
(-0.0025 -0.00433013 0)
(-0.00321394 -0.00383022 0.4)
(-0.00321394 -0.00383022 0)
(-0.00383022 -0.00321394 0.4)
(-0.00383022 -0.00321394 0)
(-0.00433013 -0.0025 0.4)
(-0.00433013 -0.0025 0)
(-0.00469846 -0.0017101 0.4)
(-0.00469846 -0.0017101 0)
(-0.00492404 -0.000868241 0.4)
(-0.00492404 -0.000868241 0)
(-0.005 0 0.4)
)


// edges:

72
(
(0 1)
(2 3)
(4 0)
(3 5)
(6 4)
(5 7)
(8 6)
(7 9)
(10 8)
(9 11)
(12 10)
(11 13)
(14 12)
(13 15)
(16 14)
(15 17)
(18 16)
(17 19)
(20 18)
(19 21)
(22 20)
(21 23)
(24 22)
(23 25)
(26 24)
(25 27)
(28 26)
(27 29)
(30 28)
(29 31)
(32 30)
(31 33)
(34 32)
(33 35)
(36 34)
(35 37)
(38 36)
(37 39)
(40 38)
(39 41)
(42 40)
(41 43)
(44 42)
(43 45)
(46 44)
(45 47)
(48 46)
(47 49)
(50 48)
(49 51)
(52 50)
(51 53)
(54 52)
(53 55)
(56 54)
(55 57)
(58 56)
(57 59)
(60 58)
(59 61)
(62 60)
(61 63)
(64 62)
(63 65)
(66 64)
(65 67)
(68 66)
(67 69)
(70 68)
(69 71)
(1 70)
(71 2)
)

// * * * * * * * * * * * * * * * * * * * * * * * * * * * * * * * * * * * * * //


// ************************************************************************* //
