/*--------------------------------*- C++ -*----------------------------------*\
| =========                 |                                                 |
| \\      /  F ield         | OpenFOAM: The Open Source CFD Toolbox           |
|  \\    /   O peration     | Version:  v1812                                 |
|   \\  /    A nd           | Web:      www.OpenFOAM.com                      |
|    \\/     M anipulation  |                                                 |
\*---------------------------------------------------------------------------*/
FoamFile
{
    version     2.0;
    format      ascii;
    class       volScalarField;
    location    "0";
    object      k;
}
// * * * * * * * * * * * * * * * * * * * * * * * * * * * * * * * * * * * * * //

dimensions      [0 2 -2 0 0 0 0];

internalField   uniform 3.7e-5;

boundaryField
{
    outlet
    {
        type            zeroGradient;
    }
    inlet
    {
      type            turbulentIntensityKineticEnergyInlet;
      intensity       0.05;
	  value		       $internalField;
    }
    wall-solid
    {
    type            kqRWallFunction;
     value           $internalField;
    }
    
   turbine
    {
        type            kqRWallFunction;
        value           $internalField;

    }
    AMI1
    {
        type            cyclicAMI;
        value           $internalField;
    }

    AMI2
    {
        type            cyclicAMI;
        value           $internalField;
    }
    
}


// ************************************************************************* //
