/*--------------------------------*- C++ -*----------------------------------*\
| =========                 |                                                 |
| \\      /  F ield         | OpenFOAM: The Open Source CFD Toolbox           |
|  \\    /   O peration     | Version:  v1812                                 |
|   \\  /    A nd           | Web:      www.OpenFOAM.com                      |
|    \\/     M anipulation  |                                                 |
\*---------------------------------------------------------------------------*/
FoamFile
{
    version     2.0;
    format      ascii;
    class       dictionary;
    location    "system";
    object      fvSolution;
}
// * * * * * * * * * * * * * * * * * * * * * * * * * * * * * * * * * * * * * //

solvers
{
    p
    {
        solver          PCG;
        preconditioner  DIC;
        tolerance       1e-06;
        relTol          0.05;
    }

    pFinal
    {
        $p;
        relTol          0;
    }

    "(U|k|epsilon|omega|R|nuTilda)"
    {
        solver          smoothSolver;
        smoother        symGaussSeidel;
        tolerance       1e-05;
        relTol          0;
    }
    //first edit to use PIMPLE 
"(U|k|epsilon|omega|R|nuTilda)Final"
    {
        solver          smoothSolver;
        smoother        symGaussSeidel;
        tolerance       1e-05;
	 relTol          0;
    }
}




SIMPLE 
{
	 nNonOrthogonalCorrectors 0;
	 consistent yes;
         residualControl
	   {
	    p               1e-2;
	    U               1e-2;
	    "(k|epsilon)" 1e-2;				     }

	  nCorrectors 1;
	  nMaxIter 5;
	  nRelaxationIterations 2;
}	  


relaxationFactors
{
    equations
   {
     U               0.9;
     k               0.7;
     omega           0.7;
					       }
}

cache
{
	    grad(U);
}




// ************************************************************************* //
