/*--------------------------------*- C++ -*----------------------------------*\
| =========                 |                                                 |
| \\      /  F ield         | OpenFOAM: The Open Source CFD Toolbox           |
|  \\    /   O peration     | Version:  2206                                  |
|   \\  /    A nd           | Website:  www.openfoam.com                      |
|    \\/     M anipulation  |                                                 |
\*---------------------------------------------------------------------------*/
FoamFile
{
    version     2.0;
    format      ascii;
    arch        "LSB;label=32;scalar=64";
    class       polyBoundaryMesh;
    location    "constant/polyMesh";
    object      boundary;
}
// * * * * * * * * * * * * * * * * * * * * * * * * * * * * * * * * * * * * * //

4
(
    bottomPatch
    {
        type            patch;
        nFaces          0;
        startFace       76348;
    }
    topPatch
    {
        type            patch;
        nFaces          88;
        startFace       76348;
    }
    wall
    {
        type            patch;
        nFaces          2212;
        startFace       76436;
    }
    procBoundary0to1
    {
        type            processor;
        inGroups        1(processor);
        nFaces          348;
        startFace       78648;
        matchTolerance  0.0001;
        transform       unknown;
        myProcNo        0;
        neighbProcNo    1;
    }
)

// ************************************************************************* //
